object AboutForm: TAboutForm
  Left = 811
  Height = 318
  Top = 53
  Width = 468
  BorderStyle = bsDialog
  Caption = 'About EPANET-UI'
  ClientHeight = 318
  ClientWidth = 468
  KeyPreview = True
  ParentFont = True
  Position = poMainFormCenter
  LCLVersion = '4.4.0.0'
  OnCreate = FormCreate
  OnKeyDown = FormKeyDown
  object PageControl1: TPageControl
    Left = 22
    Height = 270
    Top = 26
    Width = 424
    ActivePage = TabSheet1
    Style = tsFlatButtons
    TabIndex = 0
    TabOrder = 0
    OnChange = PageControl1Change
    object TabSheet1: TTabSheet
      Caption = 'About'
      ClientHeight = 239
      ClientWidth = 416
      object Panel1: TPanel
        Left = 0
        Height = 239
        Top = 0
        Width = 416
        Align = alClient
        BevelOuter = bvNone
        BorderStyle = bsSingle
        ClientHeight = 235
        ClientWidth = 412
        Color = clWindow
        ParentBackground = False
        ParentColor = False
        TabOrder = 0
        object Panel2: TPanel
          Left = 0
          Height = 68
          Top = 0
          Width = 412
          Align = alTop
          BevelOuter = bvNone
          ClientHeight = 68
          ClientWidth = 412
          ParentBackground = False
          TabOrder = 0
          object Label2: TLabel
            Left = 122
            Height = 37
            Top = 18
            Width = 198
            Caption = 'E P A N E T - U I'
            Font.CharSet = ANSI_CHARSET
            Font.Color = clBlue
            Font.Height = -27
            Font.Style = [fsBold, fsItalic]
            ParentFont = False
          end
          object Image1: TImage
            Left = 68
            Height = 40
            Top = 18
            Width = 40
            Center = True
            ImageWidth = 40
            Picture.Data = {
              055449636F6EBE1000000000010001002020000001002000A810000016000000
              2800000020000000400000000100200000000000001000006400000064000000
              0000000000000000FFFFFF00FFFFFF00FFFFFF00FFFFFF00FFFFFF00FFFFFF00
              0000000000000000000000000000000000000000000000020000000A00000012
              00000016000000160000001600000016000000120000000A0000000200000000
              0000000000000000000000000000000000000000FFFFFF00FFFFFF00FFFFFF00
              FFFFFF00FFFFFF00FFFFFF00FFFFFF00FFFFFF00FFFFFF00FFFFFF00FFFFFF00
              0000000000000000000000000000000100000009000000170000002A0000003A
              000000410000004300000043000000410000003A0000002A0000001700000009
              0000000100000000000000000000000000000000FFFFFF00FFFFFF00FFFFFF00
              FFFFFF00FFFFFF00FFFFFF00FFFFFF00FFFFFF00FFFFFF00FFFFFF00FFFFFF00
              0000000000000000000000020000000D000000240000003D905D1C99BE7A22EA
              C67E22FFC98229FFC98229FFC67E22FFBE7A22EA905D1C990000003D00000024
              0000000D00000002000000000000000000000000FFFFFF00FFFFFF00FFFFFF00
              FFFFFF00FFFFFF00FFFFFF00FFFFFF00FFFFFF00FFFFFF00FFFFFF00FFFFFF00
              00000000000000010000000D00000027774D1878C67E23FFD8A252FFEDC990FF
              F8E7C2FFF8E5C0FFF8E4BEFFF8E4BDFFEDC98DFFD9A252FFC67E23FF774D1878
              000000270000000D000000010000000000000000FFFFFF00FFFFFF00FFFFFF00
              FFFFFF00FFFFFF00FFFFFF00FFFFFF00FFFFFF00FFFFFF00FFFFFF00FFFFFF00
              00000000000000090000002487571A85CB8931FFF1D09AFFF7E2B9FFF6E0B4FF
              F5DEB3FFF5DDB2FFF5DEB1FFF5DDAFFFF5DCAEFFF6E0B2FFEECE96FFCC8931FF
              87571B8500000024000000090000000000000000FFFFFF00FFFFFF00FFFFFF00
              FFFFFF00FFFFFF00FFFFFF00FFFFFF00FFFFFF00FFFFFF00FFFFFF00FFFFFF00
              00000002000000177C501973CC8730FFF5DCA9FFF6DDAEFFF5DAACFFF6DCACFF
              F6DCADFFF6DCADFFF5DAACFFF5DAA9FFF5D8A5FFF3D5A1FFF5D7A1FFF5D7A1FF
              CC8731FF7C501973000000170000000200000000FFFFFF00FFFFFF00FFFFFF00
              FFFFFF00FFFFFF00FFFFFF00FFFFFF00FFFFFF00FFFFFF00FFFFFF00FFFFFF00
              0000000A0000002AC67F24FFEFCA8AFFF5DAA5FFF5D8A5FFF5D9A8FFF5DAA9FF
              F5DAABFFF5DAABFFF5DAA9FFF5D9A6FFF3D7A2FFF3D49CFFF2D094FFF3D397FF
              EEC785FFC67F24FF0000002A0000000A00000000FFFFFF00FFFFFF00FFFFFF00
              FFFFFF00FFFFFF00FFFFFF00FFFFFF00FFFFFF00FFFFFF00FFFFFF00FFFFFF00
              000000129A641F8FD79D48FFF5D7A0FFF2D49FFFF3D7A2FFF3D8A6FFF5D9A8FF
              F5D9A9FFF5D9A9FFF5D9A7FFF3D8A5FFF3D5A0FFF2D39AFFF1D093FFEFCB89FF
              F2D090FFD79C48FF9A641F8F0000001200000000FFFFFF00FFFFFF00FFFFFF00
              FFFFFF00FFFFFF00FFFFFF00FFFFFF00FFFFFF00FFFFFF00FFFFFF00FFFFFF00
              00000016C07B25E8E9BC73FFF2D396FFF2D49BFFF3D7A1FFF5D8A3FFF5D9A7FF
              F5D9A7FFF5D9A6FFF5D8A5FFF3D7A2FFF3D49DFFF2D196FFF1CE8FFFEFC781FF
              EFC981FFE7B86CFFC07B26E80000001600000000FFFFFF00FFFFFF00FFFFFF00
              FFFFFF00FFFFFF00FFFFFF00FFFFFF00FFFFFF00FFFFFF00FFFFFF00FFFFFF00
              00000016C67F24FFF3D18FFFF2D092FFF3D399FFF3D7A0FFF5D8A5FFF5D8A6FF
              F5D8A6FFF5D8A6FFF5D8A5FFF5D7A1FFF3D49CFFF2D195FFF1CC8CFFEEC67BFF
              EEC378FFF2CA82FFC67F25FF0000001600000000FFFFFF00FFFFFF00FFFFFF00
              FFFFFF00FFFFFF00FFFFFF00FFFFFF00FFFFFF00FFFFFF00FFFFFF00FFFFFF00
              00000016CA8127FFF3D08DFFF2CF90FFF3D499FFF3D7A0FFF5D9A3FFF5D9A5FF
              F5D9A5FFF5D9A5FFF5D9A5FFF5D8A1FFF3D59BFFF2D195FFF1CC8AFFEFC576FF
              EEC273FFF1C97AFFCA8228FF0000001600000000FFFFFF00FFFFFF00FFFFFF00
              FFFFFF00FFFFFF00FFFFFF00FFFFFF00FFFFFF00FFFFFF00FFFFFF00FFFFFF00
              00000014CA8127FFF5CF89FFF2D08DFFF3D497FFF5D8A0FFF6D9A5FFF6D9A3FF
              F6D9A5FFF6D9A5FFF6D9A5FFF5D8A0FFF5D49AFFF3D092FFF1CA84FFEEC06EFF
              EEC06DFFF2C674FFCA8229FF0000001400000000FFFFFF00FFFFFF00FFFFFF00
              FFFFFF00FFFFFF00FFFFFF00FFFFFF00FFFFFF00FFFFFF00FFFFFF00FFFFFF00
              0000000DC77F26FFEFC778FFF2CF8AFFF3D494FFF5D89FFFF7E0B2FFF7E1B6FF
              F6DAA3FFF6DAA5FFF6DAA5FFF5D9A0FFF5D599FFF2D08CFFF1C97CFFEEBE67FF
              EEC16AFFEDBE69FFC78027FF0000000D00000000FFFFFF00FFFFFF00FFFFFF00
              FFFFFF00FFFFFF00FFFFFF00FFFFFF00FFFFFF00FFFFFF00FFFFFF00FFFFFF00
              00000004BC7A26B1DEA750FFF6D187FFF5D392FFF6D799FFFAE7C2FFFAE7C3FF
              F8E7C0FFF7DAA2FFF7DAA3FFF6D89DFFF5D493FFF3CE85FFF1C36DFFEFBE63FF
              F2C267FFDDA54BFFBC7A27B10000000400000000FFFFFF00FFFFFF00FFFFFF00
              FFFFFF00FFFFFF00FFFFFF00FFFFFF00FFFFFF00FFFFFF00FFFFFF00FFFFFF00
              00000000603F1419CA842CFFF5CC7CFFF7D38DFFF7D595FFFAEACAFFFBEBCCFF
              FBEED3FFF8DDABFFF7DAA2FFF7D79AFFF6D18EFFF5CB7FFFF1BD5EFFF2BD60FF
              F2BE62FFC9862DFF603F14190000000000000000FFFFFF00FFFFFF00FFFFFF00
              FFFFFF00FFFFFF00FFFFFF00FFFFFF00FFFFFF00FFFFFF00FFFFFF00FFFFFF00
              0000000000000004BC7A25B0DEA54AFFF7D387FFF6D48EFFFBEFD4FFFBEFD3FF
              FBF1D9FFFAE6BDFFF7DA9CFFF6D795FFF5D084FFF2C369FFF1BE5CFFF3C261FF
              DDA043FFBC7A27B0000000040000000000000000FFFFFF00FFFFFF00FFFFFF00
              FFFFFF00FFFFFF00FFFFFF00FFFFFF00FFFFFF00FFFFFF00FFFFFF00FFFFFF00
              00000000000000006D471718C9832AFFF2C976FFF6D48EFFFBEED0FFFCF3DEFF
              FCF5E2FFFBEDCCFFF8D99BFFF7D794FFF6CF84FFF2C160FFF3C263FFEFBE5FFF
              C9832AFF6D471718000000000000000000000000FFFFFF00FFFFFF00FFFFFF00
              FFFFFF00FFFFFF00FFFFFF00FFFFFF00FFFFFF00FFFFFF00FFFFFF00FFFFFF00
              000000000000000000000003B777258CD99B41FFFAD78BFFFAE5B1FFFCF7EAFF
              FEF8EBFFFCF2D8FFF8DA99FFF7D78FFFF5CB72FFF5C565FFF8CA6AFFD59539FF
              B778268C00000003000000000000000000000000FFFFFF00FFFFFF00FFFFFF00
              FFFFFF00FFFFFF00FFFFFF00FFFFFF00FFFFFF00FFFFFF00FFFFFF00FFFFFF00
              00000000000000000000000000000008C47E25F6EEBE68FFFAD98DFFFCF3DDFF
              FEFCF7FFFBE7BBFFF8D895FFF8D78AFFF6C769FFF7CA6BFFEDB95BFFC37D26E3
              0000000700000000000000000000000000000000FFFFFF00FFFFFF00FFFFFF00
              FFFFFF00FFFFFF00FFFFFF00FFFFFF00FFFFFF00FFFFFF00FFFFFF00FFFFFF00
              000000000000000000000000000000019F67203FD39337FFFCDD93FFFAD994FF
              FBE5AFFFFADC99FFFAD992FFF8D380FFF7CB6CFFFBD173FFD39236FF9F67213F
              0000000100000000000000000000000000000000FFFFFF00FFFFFF00FFFFFF00
              FFFFFF00FFFFFF00FFFFFF00FFFFFF00FFFFFF00FFFFFF00FFFFFF00FFFFFF00
              0000000000000000000000000000000000000005BD7A24C1E9B75DFFFEE095FF
              FBDD97FFFBDD95FFFBD98EFFFAD174FFFCD172FFE9B456FFBD7A25C100000005
              0000000000000000000000000000000000000000FFFFFF00FFFFFF00FFFFFF00
              FFFFFF00FFFFFF00FFFFFF00FFFFFF00FFFFFF00FFFFFF00FFFFFF00FFFFFF00
              00000000000000000000000000000000000000005C3C1318CC862EFFFFE295FF
              FEDE95FFFCDD94FFFBDA8BFFFBD374FFFFDA7BFFCC872EFF5C3C131800000000
              0000000000000000000000000000000000000000FFFFFF00FFFFFF00FFFFFF00
              FFFFFF00FFFFFF00FFFFFF00FFFFFF00FFFFFF00FFFFFF00FFFFFF00FFFFFF00
              000000000000000000000000000000000000000000000004BA7825AFEBB960FF
              FFE193FFFCDD8FFFFCDA85FFFFD87AFFEBB859FFBA7825AF0000000400000000
              0000000000000000000000000000000000000000FFFFFF00FFFFFF00FFFFFF00
              FFFFFF00FFFFFF00FFFFFF00FFFFFF00FFFFFF00FFFFFF00FFFFFF00FFFFFF00
              0000000000000000000000000000000000000000000000005235111BD4953AFF
              FFE695FFFFE090FFFFDD84FFFFE083FFD49439FF5235111B0000000000000000
              0000000000000000000000000000000000000000FFFFFF00FFFFFF00FFFFFF00
              FFFFFF00FFFFFF00FFFFFF00FFFFFF00FFFFFF00FFFFFF00FFFFFF00FFFFFF00
              00000000000000000000000000000000000000000000000000000008BD7923D4
              FCD882FFFFE18EFFFFDE84FFFCD579FFBD7924D4000000080000000000000000
              0000000000000000000000000000000000000000FFFFFF00FFFFFF00FFFFFF00
              FFFFFF00FFFFFF00FFFFFF00FFFFFF00FFFFFF00FFFFFF00FFFFFF00FFFFFF00
              00000000000000000000000000000000000000000000000000000002A96E216A
              E5AE54FFFFE48DFFFFE186FFE0A64AFFA96E226A000000020000000000000000
              0000000000000000000000000000000000000000FFFFFF00FFFFFF00FFFFFF00
              FFFFFF00FFFFFF00FFFFFF00FFFFFF00FFFFFF00FFFFFF00FFFFFF00FFFFFF00
              0000000000000000000000000000000000000000000000000000000000000011
              D08F35FFFFE58FFFFFE489FFD18E35FF00000011000000000000000000000000
              0000000000000000000000000000000000000000FFFFFF00FFFFFF00FFFFFF00
              FFFFFF00FFFFFF00FFFFFF00FFFFFF00FFFFFF00FFFFFF00FFFFFF00FFFFFF00
              000000000000000000000000000000000000000000000000000000000000000C
              BD7923D3FCD87EFFFCD87AFFBD7923D30000000C000000000000000000000000
              0000000000000000000000000000000000000000FFFFFF00FFFFFF00FFFFFF00
              FFFFFF00FFFFFF00FFFFFF00FFFFFF00FFFFFF00FFFFFF00FFFFFF00FFFFFF00
              0000000000000000000000000000000000000000000000000000000000000006
              AF702290F1C669FFF6CB6FFFAF70229000000006000000000000000000000000
              0000000000000000000000000000000000000000FFFFFF00FFFFFF00FFFFFF00
              FFFFFF00FFFFFF00FFFFFF00FFFFFF00FFFFFF00FFFFFF00FFFFFF00FFFFFF00
              0000000000000000000000000000000000000000000000000000000000000002
              A1682059E1AB4FFFF7CE70FFA067205900000002000000000000000000000000
              0000000000000000000000000000000000000000FFFFFF00FFFFFF00FFFFFF00
              FFFFFF00FFFFFF00FFFFFF00FFFFFF00FFFFFF00FFFFFF00FFFFFF00FFFFFF00
              0000000000000000000000000000000000000000000000000000000000000000
              0000000DD7973EFFF7CF70FF0000000D00000000000000000000000000000000
              0000000000000000000000000000000000000000FFFFFF00FFFFFF00FFFFFF00
              FFFFFF00FFFFFF00FFFFFF00FFFFFF00FFFFFF00FFFFFF00FFFFFF00FFFFFF00
              0000000000000000000000000000000000000000000000000000000000000000
              00000003C78730A2F9D981A20000000300000000000000000000000000000000
              0000000000000000000000000000000000000000FFFFFF00FFFFFF00FFFFFF00
              FFFFFF00FFFFFF00000000000000000000000000000000000000000000000000
              0000000000000000000000000000000000000000000000000000000000000000
              0000000000000000000000000000000000000000000000000000000000000000
              0000000000000000000000000000000000000000000000000000000000000000
              0000000000000000
            }
            StretchInEnabled = False
            Transparent = True
          end
        end
        object Panel3: TPanel
          Left = 0
          Height = 70
          Top = 165
          Width = 412
          Align = alBottom
          BevelOuter = bvNone
          ParentBackground = False
          TabOrder = 1
          Wordwrap = True
        end
        object Panel4: TPanel
          Left = 0
          Height = 93
          Top = 72
          Width = 412
          Align = alBottom
          BevelOuter = bvNone
          ParentBackground = False
          TabOrder = 2
          Wordwrap = True
        end
      end
    end
    object TabSheet2: TTabSheet
      Caption = 'Terms of Use'
      ClientHeight = 239
      ClientWidth = 416
      object HtmlViewer2: THtmlViewer
        Left = 0
        Height = 239
        Top = 0
        Width = 416
        BorderStyle = htSingle
        DefBackground = clWindow
        DefFontName = 'Segoe UI'
        HistoryMaxCount = 0
        NoSelect = False
        PrintMarginBottom = 2
        PrintMarginLeft = 2
        PrintMarginRight = 2
        PrintMarginTop = 2
        PrintScale = 1
        Align = alClient
        TabOrder = 0
      end
    end
    object TabSheet3: TTabSheet
      Caption = 'Acknowledgements'
      ClientHeight = 239
      ClientWidth = 416
      object HtmlViewer3: THtmlViewer
        Left = 0
        Height = 239
        Top = 0
        Width = 416
        BorderStyle = htFocused
        DefBackground = clWindow
        DefFontName = 'Segoe UI'
        HistoryMaxCount = 0
        NoSelect = False
        PrintMarginBottom = 2
        PrintMarginLeft = 2
        PrintMarginRight = 2
        PrintMarginTop = 2
        PrintScale = 1
        OnHotSpotClick = HtmlViewer3HotSpotClick
        Align = alClient
        TabOrder = 0
      end
    end
  end
end
